# generated using pymatgen
data_CaAl2Si4(H2O7)2
_symmetry_space_group_name_H-M   'P 1'
_cell_length_a   14.95224600
_cell_length_b   13.15703200
_cell_length_c   7.58697395
_cell_angle_alpha   90.00000000
_cell_angle_beta   109.99300904
_cell_angle_gamma   90.00000000
_symmetry_Int_Tables_number   1
_chemical_formula_structural   CaAl2Si4(H2O7)2
_chemical_formula_sum   'Ca4 Al8 Si16 H16 O56'
_cell_volume   1402.61363787
_cell_formula_units_Z   4
loop_
 _symmetry_equiv_pos_site_id
 _symmetry_equiv_pos_as_xyz
  1  'x, y, z'
loop_
 _atom_type_symbol
 _atom_type_oxidation_number
  Ca2+  2.0
  Al3+  3.0
  Si4+  4.0
  H+  1.0
  O2-  -2.0
loop_
 _atom_site_type_symbol
 _atom_site_label
 _atom_site_symmetry_multiplicity
 _atom_site_fract_x
 _atom_site_fract_y
 _atom_site_fract_z
 _atom_site_occupancy
  Ca2+  Ca0  1  0.25819100  0.50000000  0.73250700  1
  Ca2+  Ca1  1  0.74180900  0.50000000  0.26749300  1
  Ca2+  Ca2  1  0.75819100  0.00000000  0.73250700  1
  Ca2+  Ca3  1  0.24180900  0.00000000  0.26749300  1
  Al3+  Al4  1  0.12655050  0.69068850  0.73988200  1
  Al3+  Al5  1  0.87344950  0.69068850  0.26011800  1
  Al3+  Al6  1  0.87344950  0.30931150  0.26011800  1
  Al3+  Al7  1  0.12655050  0.30931150  0.73988200  1
  Al3+  Al8  1  0.62655050  0.19068850  0.73988200  1
  Al3+  Al9  1  0.37344950  0.19068850  0.26011800  1
  Al3+  Al10  1  0.37344950  0.80931150  0.26011800  1
  Al3+  Al11  1  0.62655050  0.80931150  0.73988200  1
  Si4+  Si12  1  0.24043800  0.61768900  0.15590700  1
  Si4+  Si13  1  0.75956200  0.61768900  0.84409300  1
  Si4+  Si14  1  0.75956200  0.38231100  0.84409300  1
  Si4+  Si15  1  0.24043800  0.38231100  0.15590700  1
  Si4+  Si16  1  0.08108050  0.61673250  0.32712500  1
  Si4+  Si17  1  0.91891950  0.61673250  0.67287500  1
  Si4+  Si18  1  0.91891950  0.38326750  0.67287500  1
  Si4+  Si19  1  0.08108050  0.38326750  0.32712500  1
  Si4+  Si20  1  0.74043800  0.11768900  0.15590700  1
  Si4+  Si21  1  0.25956200  0.11768900  0.84409300  1
  Si4+  Si22  1  0.25956200  0.88231100  0.84409300  1
  Si4+  Si23  1  0.74043800  0.88231100  0.15590700  1
  Si4+  Si24  1  0.58108050  0.11673250  0.32712500  1
  Si4+  Si25  1  0.41891950  0.11673250  0.67287500  1
  Si4+  Si26  1  0.41891950  0.88326750  0.67287500  1
  Si4+  Si27  1  0.58108050  0.88326750  0.32712500  1
  H+  H28  1  0.91049900  0.18402500  0.72347700  1
  H+  H29  1  0.08950100  0.18402500  0.27652300  1
  H+  H30  1  0.08950100  0.81597500  0.27652300  1
  H+  H31  1  0.91049900  0.81597500  0.72347700  1
  H+  H32  1  0.98212350  0.02875450  0.67909000  1
  H+  H33  1  0.01787650  0.02875450  0.32091000  1
  H+  H34  1  0.01787650  0.97124550  0.32091000  1
  H+  H35  1  0.98212350  0.97124550  0.67909000  1
  H+  H36  1  0.41049900  0.68402500  0.72347700  1
  H+  H37  1  0.58950100  0.68402500  0.27652300  1
  H+  H38  1  0.58950100  0.31597500  0.27652300  1
  H+  H39  1  0.41049900  0.31597500  0.72347700  1
  H+  H40  1  0.48212350  0.52875450  0.67909000  1
  H+  H41  1  0.51787650  0.52875450  0.32091000  1
  H+  H42  1  0.51787650  0.47124550  0.32091000  1
  H+  H43  1  0.48212350  0.47124550  0.67909000  1
  O2-  O44  1  0.26228800  0.50000000  0.23123500  1
  O2-  O45  1  0.73771200  0.50000000  0.76876500  1
  O2-  O46  1  0.20705250  0.61759450  0.92596400  1
  O2-  O47  1  0.79294750  0.61759450  0.07403600  1
  O2-  O48  1  0.79294750  0.38240550  0.07403600  1
  O2-  O49  1  0.20705250  0.38240550  0.92596400  1
  O2-  O50  1  0.13862100  0.61457100  0.55382300  1
  O2-  O51  1  0.86137900  0.61457100  0.44617700  1
  O2-  O52  1  0.86137900  0.38542900  0.44617700  1
  O2-  O53  1  0.13862100  0.38542900  0.55382300  1
  O2-  O54  1  0.15063150  0.65927850  0.21569600  1
  O2-  O55  1  0.84936850  0.65927850  0.78430400  1
  O2-  O56  1  0.84936850  0.34072150  0.78430400  1
  O2-  O57  1  0.15063150  0.34072150  0.21569600  1
  O2-  O58  1  0.16683700  0.81452300  0.74927600  1
  O2-  O59  1  0.83316300  0.81452300  0.25072400  1
  O2-  O60  1  0.83316300  0.18547700  0.25072400  1
  O2-  O61  1  0.16683700  0.18547700  0.74927600  1
  O2-  O62  1  0.04822500  0.50000000  0.25722100  1
  O2-  O63  1  0.95177500  0.50000000  0.74277900  1
  O2-  O64  1  0.99261400  0.69427500  0.27534900  1
  O2-  O65  1  0.00738600  0.69427500  0.72465100  1
  O2-  O66  1  0.00738600  0.30572500  0.72465100  1
  O2-  O67  1  0.99261400  0.30572500  0.27534900  1
  O2-  O68  1  0.35923200  0.63346900  0.69997700  1
  O2-  O69  1  0.64076800  0.63346900  0.30002300  1
  O2-  O70  1  0.64076800  0.36653100  0.30002300  1
  O2-  O71  1  0.35923200  0.36653100  0.69997700  1
  O2-  O72  1  0.76228800  0.00000000  0.23123500  1
  O2-  O73  1  0.23771200  0.00000000  0.76876500  1
  O2-  O74  1  0.70705250  0.11759450  0.92596400  1
  O2-  O75  1  0.29294750  0.11759450  0.07403600  1
  O2-  O76  1  0.29294750  0.88240550  0.07403600  1
  O2-  O77  1  0.70705250  0.88240550  0.92596400  1
  O2-  O78  1  0.63862100  0.11457100  0.55382300  1
  O2-  O79  1  0.36137900  0.11457100  0.44617700  1
  O2-  O80  1  0.36137900  0.88542900  0.44617700  1
  O2-  O81  1  0.63862100  0.88542900  0.55382300  1
  O2-  O82  1  0.65063150  0.15927850  0.21569600  1
  O2-  O83  1  0.34936850  0.15927850  0.78430400  1
  O2-  O84  1  0.34936850  0.84072150  0.78430400  1
  O2-  O85  1  0.65063150  0.84072150  0.21569600  1
  O2-  O86  1  0.66683700  0.31452300  0.74927600  1
  O2-  O87  1  0.33316300  0.31452300  0.25072400  1
  O2-  O88  1  0.33316300  0.68547700  0.25072400  1
  O2-  O89  1  0.66683700  0.68547700  0.74927600  1
  O2-  O90  1  0.54822500  0.00000000  0.25722100  1
  O2-  O91  1  0.45177500  0.00000000  0.74277900  1
  O2-  O92  1  0.49261400  0.19427500  0.27534900  1
  O2-  O93  1  0.50738600  0.19427500  0.72465100  1
  O2-  O94  1  0.50738600  0.80572500  0.72465100  1
  O2-  O95  1  0.49261400  0.80572500  0.27534900  1
  O2-  O96  1  0.85923200  0.13346900  0.69997700  1
  O2-  O97  1  0.14076800  0.13346900  0.30002300  1
  O2-  O98  1  0.14076800  0.86653100  0.30002300  1
  O2-  O99  1  0.85923200  0.86653100  0.69997700  1
