# generated using pymatgen
data_CaSi2(BO4)2
_symmetry_space_group_name_H-M   'P 1'
_cell_length_a   7.80844700
_cell_length_b   8.15174200
_cell_length_c   8.86151700
_cell_angle_alpha   90.00000000
_cell_angle_beta   90.00000000
_cell_angle_gamma   90.00000000
_symmetry_Int_Tables_number   1
_chemical_formula_structural   CaSi2(BO4)2
_chemical_formula_sum   'Ca4 Si8 B8 O32'
_cell_volume   564.05722669
_cell_formula_units_Z   4
loop_
 _symmetry_equiv_pos_site_id
 _symmetry_equiv_pos_as_xyz
  1  'x, y, z'
loop_
 _atom_type_symbol
 _atom_type_oxidation_number
  Ca2+  2.0
  Si4+  4.0
  B3+  3.0
  O2-  -2.0
loop_
 _atom_site_type_symbol
 _atom_site_label
 _atom_site_symmetry_multiplicity
 _atom_site_fract_x
 _atom_site_fract_y
 _atom_site_fract_z
 _atom_site_occupancy
  Ca2+  Ca0  1  0.25000000  0.11196300  0.42388300  1
  Ca2+  Ca1  1  0.75000000  0.88803700  0.57611700  1
  Ca2+  Ca2  1  0.25000000  0.61196300  0.07611700  1
  Ca2+  Ca3  1  0.75000000  0.38803700  0.92388300  1
  Si4+  Si4  1  0.05520900  0.55476200  0.69201200  1
  Si4+  Si5  1  0.55520900  0.44523800  0.30798800  1
  Si4+  Si6  1  0.44479100  0.05476200  0.80798800  1
  Si4+  Si7  1  0.94479100  0.94523800  0.19201200  1
  Si4+  Si8  1  0.94479100  0.44523800  0.30798800  1
  Si4+  Si9  1  0.44479100  0.55476200  0.69201200  1
  Si4+  Si10  1  0.55520900  0.94523800  0.19201200  1
  Si4+  Si11  1  0.05520900  0.05476200  0.80798800  1
  B3+  B12  1  0.57948600  0.26009800  0.58170300  1
  B3+  B13  1  0.57948600  0.76009800  0.91829700  1
  B3+  B14  1  0.07948600  0.23990200  0.08170300  1
  B3+  B15  1  0.92051400  0.26009800  0.58170300  1
  B3+  B16  1  0.42051400  0.73990200  0.41829700  1
  B3+  B17  1  0.07948600  0.73990200  0.41829700  1
  B3+  B18  1  0.92051400  0.76009800  0.91829700  1
  B3+  B19  1  0.42051400  0.23990200  0.08170300  1
  O2-  O20  1  0.25000000  0.31397800  0.07255600  1
  O2-  O21  1  0.75000000  0.18602200  0.57255600  1
  O2-  O22  1  0.25000000  0.81397800  0.42744400  1
  O2-  O23  1  0.75000000  0.68602200  0.92744400  1
  O2-  O24  1  0.25000000  0.98868800  0.83500700  1
  O2-  O25  1  0.75000000  0.01131200  0.16499300  1
  O2-  O26  1  0.25000000  0.48868800  0.66499300  1
  O2-  O27  1  0.75000000  0.51131200  0.33500700  1
  O2-  O28  1  0.92218600  0.90024400  0.81315400  1
  O2-  O29  1  0.42218600  0.09975600  0.18684600  1
  O2-  O30  1  0.57781400  0.40024400  0.68684600  1
  O2-  O31  1  0.07781400  0.59975600  0.31315400  1
  O2-  O32  1  0.00271200  0.19305400  0.93348400  1
  O2-  O33  1  0.50271200  0.80694600  0.06651600  1
  O2-  O34  1  0.49728800  0.69305400  0.56651600  1
  O2-  O35  1  0.99728800  0.30694600  0.43348400  1
  O2-  O36  1  0.99728800  0.80694600  0.06651600  1
  O2-  O37  1  0.49728800  0.19305400  0.93348400  1
  O2-  O38  1  0.50271200  0.30694600  0.43348400  1
  O2-  O39  1  0.00271200  0.69305400  0.56651600  1
  O2-  O40  1  0.04116300  0.12803900  0.63567800  1
  O2-  O41  1  0.54116300  0.87196100  0.36432200  1
  O2-  O42  1  0.45883700  0.62803900  0.86432200  1
  O2-  O43  1  0.95883700  0.37196100  0.13567800  1
  O2-  O44  1  0.95883700  0.87196100  0.36432200  1
  O2-  O45  1  0.45883700  0.12803900  0.63567800  1
  O2-  O46  1  0.54116300  0.37196100  0.13567800  1
  O2-  O47  1  0.04116300  0.62803900  0.86432200  1
  O2-  O48  1  0.92218600  0.40024400  0.68684600  1
  O2-  O49  1  0.42218600  0.59975600  0.31315400  1
  O2-  O50  1  0.57781400  0.90024400  0.81315400  1
  O2-  O51  1  0.07781400  0.09975600  0.18684600  1
