# generated using pymatgen
data_CaMg(SiO3)2
_symmetry_space_group_name_H-M   'P 1'
_cell_length_a   9.89170000
_cell_length_b   9.02990600
_cell_length_c   5.32982658
_cell_angle_alpha   90.00000000
_cell_angle_beta   106.40015687
_cell_angle_gamma   90.00000000
_symmetry_Int_Tables_number   1
_chemical_formula_structural   CaMg(SiO3)2
_chemical_formula_sum   'Ca4 Mg4 Si8 O24'
_cell_volume   456.69648092
_cell_formula_units_Z   4
loop_
 _symmetry_equiv_pos_site_id
 _symmetry_equiv_pos_as_xyz
  1  'x, y, z'
loop_
 _atom_type_symbol
 _atom_type_oxidation_number
  Ca2+  2.0
  Mg2+  2.0
  Si4+  4.0
  O2-  -2.0
loop_
 _atom_site_type_symbol
 _atom_site_label
 _atom_site_symmetry_multiplicity
 _atom_site_fract_x
 _atom_site_fract_y
 _atom_site_fract_z
 _atom_site_occupancy
  Ca2+  Ca0  1  0.00000000  0.29891000  0.25000000  1
  Ca2+  Ca1  1  0.00000000  0.70109000  0.75000000  1
  Ca2+  Ca2  1  0.50000000  0.79891000  0.25000000  1
  Ca2+  Ca3  1  0.50000000  0.20109000  0.75000000  1
  Mg2+  Mg4  1  0.00000000  0.90757500  0.25000000  1
  Mg2+  Mg5  1  0.00000000  0.09242500  0.75000000  1
  Mg2+  Mg6  1  0.50000000  0.40757500  0.25000000  1
  Mg2+  Mg7  1  0.50000000  0.59242500  0.75000000  1
  Si4+  Si8  1  0.21376300  0.40684800  0.76729600  1
  Si4+  Si9  1  0.78623700  0.59315200  0.23270400  1
  Si4+  Si10  1  0.78623700  0.40684800  0.73270400  1
  Si4+  Si11  1  0.21376300  0.59315200  0.26729600  1
  Si4+  Si12  1  0.71376300  0.90684800  0.76729600  1
  Si4+  Si13  1  0.28623700  0.09315200  0.23270400  1
  Si4+  Si14  1  0.28623700  0.90684800  0.73270400  1
  Si4+  Si15  1  0.71376300  0.09315200  0.26729600  1
  O2-  O16  1  0.84987350  0.48492650  0.50210200  1
  O2-  O17  1  0.15012650  0.48492650  0.99789800  1
  O2-  O18  1  0.15012650  0.51507350  0.49789800  1
  O2-  O19  1  0.84987350  0.51507350  0.00210200  1
  O2-  O20  1  0.86260450  0.25070850  0.81986600  1
  O2-  O21  1  0.13739550  0.25070850  0.68013400  1
  O2-  O22  1  0.13739550  0.74929150  0.18013400  1
  O2-  O23  1  0.86260450  0.74929150  0.31986600  1
  O2-  O24  1  0.61551250  0.58780250  0.14283800  1
  O2-  O25  1  0.38448750  0.58780250  0.35716200  1
  O2-  O26  1  0.38448750  0.41219750  0.85716200  1
  O2-  O27  1  0.61551250  0.41219750  0.64283800  1
  O2-  O28  1  0.34987350  0.98492650  0.50210200  1
  O2-  O29  1  0.65012650  0.98492650  0.99789800  1
  O2-  O30  1  0.65012650  0.01507350  0.49789800  1
  O2-  O31  1  0.34987350  0.01507350  0.00210200  1
  O2-  O32  1  0.36260450  0.75070850  0.81986600  1
  O2-  O33  1  0.63739550  0.75070850  0.68013400  1
  O2-  O34  1  0.63739550  0.24929150  0.18013400  1
  O2-  O35  1  0.36260450  0.24929150  0.31986600  1
  O2-  O36  1  0.11551250  0.08780250  0.14283800  1
  O2-  O37  1  0.88448750  0.08780250  0.35716200  1
  O2-  O38  1  0.88448750  0.91219750  0.85716200  1
  O2-  O39  1  0.11551250  0.91219750  0.64283800  1
