# generated using pymatgen
data_CaSiO3
_symmetry_space_group_name_H-M   'P 1'
_cell_length_a   7.08421361
_cell_length_b   7.32539354
_cell_length_c   15.43457976
_cell_angle_alpha   90.00000000
_cell_angle_beta   95.46384433
_cell_angle_gamma   90.00000000
_symmetry_Int_Tables_number   1
_chemical_formula_structural   CaSiO3
_chemical_formula_sum   'Ca12 Si12 O36'
_cell_volume   797.33292421
_cell_formula_units_Z   12
loop_
 _symmetry_equiv_pos_site_id
 _symmetry_equiv_pos_as_xyz
  1  'x, y, z'
loop_
 _atom_type_symbol
 _atom_type_oxidation_number
  Ca2+  2.0
  Si4+  4.0
  O2-  -2.0
loop_
 _atom_site_type_symbol
 _atom_site_label
 _atom_site_symmetry_multiplicity
 _atom_site_fract_x
 _atom_site_fract_y
 _atom_site_fract_z
 _atom_site_occupancy
  Ca2+  Ca0  1  0.97078283  0.87563200  0.74739676  1
  Ca2+  Ca1  1  0.02921717  0.37563200  0.75260324  1
  Ca2+  Ca2  1  0.02921717  0.12436800  0.25260324  1
  Ca2+  Ca3  1  0.97078283  0.62436800  0.24739676  1
  Ca2+  Ca4  1  0.73647385  0.62145801  0.89780453  1
  Ca2+  Ca5  1  0.26352615  0.12145801  0.60219547  1
  Ca2+  Ca6  1  0.26352615  0.37854199  0.10219547  1
  Ca2+  Ca7  1  0.73647385  0.87854199  0.39780453  1
  Ca2+  Ca8  1  0.73946746  0.12689245  0.89995682  1
  Ca2+  Ca9  1  0.26053254  0.62689245  0.60004318  1
  Ca2+  Ca10  1  0.26053254  0.87310755  0.10004318  1
  Ca2+  Ca11  1  0.73946746  0.37310755  0.39995682  1
  Si4+  Si12  1  0.44306879  0.87638162  0.80152703  1
  Si4+  Si13  1  0.55693121  0.37638162  0.69847297  1
  Si4+  Si14  1  0.55693121  0.12361838  0.19847297  1
  Si4+  Si15  1  0.44306879  0.62361838  0.30152703  1
  Si4+  Si16  1  0.23087800  0.59240902  0.90753904  1
  Si4+  Si17  1  0.76912200  0.09240902  0.59246096  1
  Si4+  Si18  1  0.76912200  0.40759098  0.09246096  1
  Si4+  Si19  1  0.23087800  0.90759098  0.40753904  1
  Si4+  Si20  1  0.23074607  0.15862024  0.90770500  1
  Si4+  Si21  1  0.76925393  0.65862024  0.59229500  1
  Si4+  Si22  1  0.76925393  0.84137976  0.09229500  1
  Si4+  Si23  1  0.23074607  0.34137976  0.40770500  1
  O2-  O24  1  0.40709739  0.05543151  0.86422596  1
  O2-  O25  1  0.59290261  0.55543151  0.63577404  1
  O2-  O26  1  0.59290261  0.94456849  0.13577404  1
  O2-  O27  1  0.40709739  0.44456849  0.36422596  1
  O2-  O28  1  0.40607956  0.69679812  0.86416564  1
  O2-  O29  1  0.59392044  0.19679812  0.63583436  1
  O2-  O30  1  0.59392044  0.30320188  0.13583436  1
  O2-  O31  1  0.40607956  0.80320188  0.36416564  1
  O2-  O32  1  0.27300374  0.37584931  0.89029386  1
  O2-  O33  1  0.72699626  0.87584931  0.60970614  1
  O2-  O34  1  0.72699626  0.62415069  0.10970614  1
  O2-  O35  1  0.27300374  0.12415069  0.39029386  1
  O2-  O36  1  0.66953657  0.87500168  0.79862562  1
  O2-  O37  1  0.33046343  0.37500168  0.70137438  1
  O2-  O38  1  0.29942712  0.87647201  0.71447518  1
  O2-  O39  1  0.33046343  0.12499832  0.20137438  1
  O2-  O40  1  0.23721173  0.62798952  0.00984684  1
  O2-  O41  1  0.76278827  0.12798952  0.49015316  1
  O2-  O42  1  0.76278827  0.37201048  0.99015316  1
  O2-  O43  1  0.23721173  0.87201048  0.50984684  1
  O2-  O44  1  0.23404183  0.12248221  0.00935247  1
  O2-  O45  1  0.76595817  0.62248221  0.49064753  1
  O2-  O46  1  0.76595817  0.87751779  0.99064753  1
  O2-  O47  1  0.23404183  0.37751779  0.50935247  1
  O2-  O48  1  0.03608375  0.38724149  0.34807808  1
  O2-  O49  1  0.96391625  0.88724149  0.15192192  1
  O2-  O50  1  0.96391625  0.61275851  0.65192192  1
  O2-  O51  1  0.03608375  0.11275851  0.84807808  1
  O2-  O52  1  0.03507004  0.86089415  0.34940989  1
  O2-  O53  1  0.96492996  0.36089415  0.15059011  1
  O2-  O54  1  0.96492996  0.13910585  0.65059011  1
  O2-  O55  1  0.03507004  0.63910585  0.84940989  1
  O2-  O56  1  0.29942712  0.62352799  0.21447518  1
  O2-  O57  1  0.70057288  0.12352799  0.28552482  1
  O2-  O58  1  0.70057288  0.37647201  0.78552482  1
  O2-  O59  1  0.66953657  0.62499832  0.29862562  1
